COMUNE DI MODENA
SETTORE SMART CITY, SERVIZI DEMOGRAFICI E PARTECIPAZIONE  
*********
DETERMINAZIONE n. 3077/2024 del 18/11/2024 
Proposta n. 4379/2024  
Esecutiva dal 21/11/2024
Protocollo n. 452170 del 21/11/2024
OGGETTO:  ABBONAMENTO  A  BANCA  DATI  TELEMACO  DELLA  CAMERA  DI  
COMMERCIO PER L'ANNO 2025 - AFFIDAMENTO A INFOCAMERE SCPA - IMPEGNO  
2025.. 
Allegati: 
Visti: 
•Visto Congruita' con esito Favorevole (firmato: Si, firmatario: SALV ATORE LUCA)
•Visto Contabile con esito Favorevole (firmato: Si, firmatario: MANELLI DA VIDE)
Determinazione n. 3077 del 18/11/2024
copia informatica per consultazione
COMUNE DI MODENA
DETERMINAZIONE DEL DIRIGENTE RESPONSABILE
SETTORE SMART CITY , SERVIZI DEMOGRAFICI E PARTECIPAZIONE
Ing. Luca Salvatore
Numero determina: 3077/2024
del 18/11/2024
OGGETTO: ABBONAMENTO A BANCA DATI TELEMACO DELLA CAMERA DI 
COMMERCIO PER L'ANNO 2025 - AFFIDAMENTO A INFOCAMERE SCPA - IMPEGNO  
2025..
IL DIRIGENTE
Premesso:
- che con deliberazioni del Consiglio comunale n. 89 del 14.12.2023 e n. 94 del 21.12.2023,  
entrambe immediatamente eseguibili, sono stati approvati rispettivamente la nota di aggiornamento  
al Documento Unico di Programmazione (DUP) 2024-2026 e il Bilancio di Previsione 2024-2026;
-  che  con  deliberazioni  della  Giunta  comunale  n.  773  e  n.  774  del  28.12.2023,  entrambe  
immediatamente eseguibili, sono stati approvati rispettivamente il Piano Integrato di Attività e  
Organizzazione (PIAO) 2024-2026, nel cui allegato A sono indicati gli obiettivi e le attività di  
performance dei Settori, e il Piano Esecutivo di Gestione 2024-2026, con il quale sono state  
assegnate  ai  dirigenti  titolari  dei  Centri  di  Responsabilità  le  dotazioni  economico-finanziarie  
necessarie alla realizzazione degli obiettivi e delle attività definiti nel PIAO;
- che la Giunta comunale ha successivamente apportato variazioni al suddetto Piano Esecutivo di  
Gestione 2024-2026;
Reso noto che il Comune di Modena, tramite il Settore Smart City, Servizi Demografici e  
Partecipazione, gestisce l'infrastruttura tecnologica del sistema informativo dell'Ente, costituito da  
apparecchiature hardware e da software; 
Considerato che i diversi Settori e Uffici del Comune di Modena necessitano, per il corretto  
svolgimento delle proprie attività e per l'adempimento di specifici obblighi normativi di controllo e  
verifica, di consultare le banche dati ed estrarre visure dai registri delle Camere di Commercio,  
operazioni per le quali è necessario uno specifico abbonamento, a pagamento, al servizio Telemaco  
gestito dalla società consortile InfoCamere S.c.p.a.;
Dato atto che:
- la tenuta del Registro Informatico delle imprese, a cui devono iscriversi tutte le imprese operanti  
nel territorio nazionale, è affidata per legge alle Camere di Commercio (cfr. art. 8 Legge 29  
dicembre 1993, n. 580), che si avvalgono a tal fine, ai sensi del D.P.R. 7 dicembre 1995, n.581,  
della società consortile per azioni InfoCamere S.c.p.a., i cui servizi di accesso al registro imprese  
copia informatica per consultazione
costituiscono pertanto l'unica fonte ufficiale delle banche dati delle Camere di Commercio;
- che lo statuto di InfoCamere S.C.p.a individua i compiti della società, specificando che la stessa  
agisce nell'interesse e per conto delle Camere di Commercio nell'approntare, organizzare e gestire il  
sistema informatico nazionale ai sensi della l. 580/1993 e s.m.i e del D.P.R. 7 dicembre 1995, n.  
581;
Richiamato il parere espresso dall'Autorità Nazionale Anticorruzione (ANAC) con delibera  
n. 1345 del 21 dicembre 2016 che sancisce:
•che InfoCamere S.c.p.a., in quanto soggetto investito di un servizio (tenuta, gestione e messa  
a disposizione della banca di interesse nazionale dei dati camerali) destinato a soddisfare  
interessi di carattere generale e sottoposto a controllo di altro ente pubblico deve essere  
qualificato come organismo di diritto pubblico ai sensi dell'art. 3, comma 1 lett. d) del d.lgs.  
n. 50/2016 ed ha, quindi natura di amministrazione aggiudicatrice;
•che a favore di InfoCamere S.c.p.a. sussiste un diritto esclusivo al servizio di collegamento  
informatico con le banche dati delle Camere di Commercio alla luce del quadro normativo  
vigente  (Legge  n.  580/93  istitutiva  dell'Ufficio  del  Registro  delle  imprese  e  dal  suo  
regolamento di attuazione – D.P.R. n. 581/95);
•che l'acquisizione del servizio di collegamento informatico con le banche dati delle Camere  
di Commercio, da parte di un'amministrazione aggiudicatrice, nei confronti di InfoCamere  
S.c.p.a. è riconducibile al novero degli appalti pubblici di servizi caratterizzati da un diritto  
esclusivo di cui esse beneficiano in virtù di disposizioni legislative o regolamentari o di  
disposizioni amministrative pubblicate che siano compatibili con il Trattato dell'Unione  
Europea in base all'art. 56 comma 1, lett. a) del d.lgs. n. 36/2023;  
Considerato che:
- InfoCamere S.c.p.a. non è assimilabile ad un fornitore di mercato che opera in libera concorrenza  
e non ha l'obbligo di iscrizione al Mepa o ad altri mercati elettronici;  
- in quanto servizio aggiudicato in base ad un diritto esclusivo, ai sensi dell'art. 56 comma 1, lett. a)  
del d.lgs. n. 36/2023, è escluso dall'applicazione della normativa sugli appalti e dunque InfoCamere  
non è soggetta alle norme sulla tracciabilità dei flussi finanziari e non vi è quindi necessità di  
acquisire il CIG così come previsto dalla delibera Anac 556 del 31/05/2017 al paragrafo 2.5;
Ritenuto necessario attivare l'abbonamento alla banca dati sopra citata anche per l'anno  
2025  in  considerazione  dell'importanza  che  essa  riveste  per  la  gestione  delle  pratiche  
amministrative e contabili da parte di tutti gli Uffici del Comune di Modena;
Dato atto che:
– il costo dell'abbonamento alla banca dati della CCIAA denominata “ Telemaco” è rapportata al 
numero di “slot” acquistati, al prezzo di €  2.500,00 cadauno, ove per “ slot” si intende un pacchetto  
che dà diritto all'attribuzione di n. 5  user e al compimento di n.  5000 operazioni (es. ricerca  
anagrafica o richiesta di visura);
– sulla  base dell'utilizzo registrato nell'ultimo anno e visto l'aumento in generale delle attività di  
controllo  da  parte  delle  pubbliche  amministrazioni  sui  fornitori  che  rendono  necessaria  la  
consultazione  delle  banche  dati  delle  Camere  di  Commercio,  si  ritiene  opportuno  attivare  
l'abbonamento per n. 4 slot;
Considerato che l'abbonamento per l'anno 2025, con decorrenza 01/01/2025 alla banca dati 
“Telemaco”, gestita da Infocamere S.c.p.a, comporta una spesa di netti € 10.000,00, come da offerta 
copia informatica per consultazione
agli atti del Settore PG. 438458, del 13/11/2025;
Dato altresì atto che:
- il RUP (Responsabile Unico del Progetto) è il Dott. Simone Riccucci, Responsabile dell'Ufficio  
Agenda Digitale, ai sensi dell'art. 15, D.lgs. 36/2023 e dell'atto di delega del Dirigente di Settore PG
n.  81028/2023,  il  suddetto  RUP  è  anche  responsabile  di  procedimento  per  le  fasi  di  
programmazione, progettazione, affidamento ed esecuzione ai sensi dell’art. 4 della L. 241/90;
- è stata verificata la regolarità contributiva della società sopra indicata (DURC) con  Numero 
Protocollo INAIL_42611156 del 24/09/2024 scadenza il 22/01/2025;
- si provvederà a tutti gli adempimenti in materia di comunicazione e trasparenza di cui agli artt. 27  
e 28 del Codice, compresa la pubblicazione dell’avviso sui risultati delle procedure di affidamento  
ai sensi dell’art. 50, comma 9, ovvero del presente atto in quanto trattasi di affidamento diretto  
anche  nell'apposita  sezione  del  profilo  del  committente  dell'ente  
https://www.comune.modena.it/amministrazione-trasparente/bandi-di-gara-e-contratti/procedure-di-
affidamento/procedure-di-affidamento-di-appalti-pubblici-e-concessioni-dal-1-01-2024/affidamenti-
diretti;
Vista:
- la disposizione del Sindaco di attribuzione di incarico dirigenziale PG 76011 del 27/02/2023, con  
la quale è stato conferito l'incarico di Dirigente del Settore Smart city, Servizi demografici e  
Partecipazione all’Ing. Luca Salvatore;
-  la  disposizione  del  Sindaco  di  nomina  dell’Ing.  Luca  Salvatore  quale  Responsabile  della  
Transizione Digitale dell'ente (RTD), PG n. 76011 del 27/02/2023;
Vista la delega del Dirigente responsabile del Settore Smart city, Servizi demografici e  
Partecipazione, pg. n. 81028 del 01/03/2023, in materia di provvedimenti organizzativi e delega di  
funzioni gestionali ai Responsabili dei Servizi e degli Uffici, in base alla quale il Dott. Simone  
Riccucci  può  adottare  le  determinazioni  con  impegno  di  spesa,  previo  visto  di  congruità  del  
Dirigente Responsabile del Settore;
Acquisito il visto di congruità del Dirigente Responsabile del Settore Smart City, Servizi  
demografici e partecipazione, Ing. Luca Salvatore, ai sensi degli artt. 24 e 25 del Regolamento di  
organizzazione;
Visto l'art. 183, commi 8 e 9, e art. 192 del T.U. n. 267/2000 ordinamento EE.LL.;
Visti gli artt. 74 e 75 dello Statuto ed il Regolamento di Contabilità;
Visto il D.lgs. 36/2023 “Codice dei contratti pubblici”;
Visto il regolamento comunale per la disciplina dei contratti;
Ritenuto che l'istruttoria preordinata all'emanazione del presente atto consenta di attestare la  
regolarità e la correttezza di quest'ultimo ai sensi e per gli effetti di quanto dispone l'art. 147 bis del  
D.Lgs. 267/2000;
D E T E R M I N A
per le motivazioni espresse in parte narrativa, che integralmente si richiamano:
copia informatica per consultazione
1) di acquistare, l'abbonamento annuale, con decorrenza 01/01/2025 per l'accesso alla banca dati  
Telemaco, opzione A – Fascia A4 SLOT, per un totale di n. 4 (quattro) slot,  offerto da Infocamere 
S.C.p.A., come da offerta depositata agli atti del Settore PG 438458/2024;
2) di impegnare al capitolo 2390, art. 3 “utenze e canoni” del Peg triennale, annualità  2025, P.d.c. 
1.3.2.5.3. “accesso a banche dati e a pubblicazioni on line”, l'importo di € 12.200,00 IV A inclusa a 
favore di  Infocamere S.C.p.A. , P.Iva 02313821007 con sede legale in via G.B. Morgagni n. 13,  
00161 Roma, dando atto che esistono i presupposti di cui all'art. 183, comma 6 del T.U. n. 267/2000  
ordinamento  EE.LL.,  in  quanto  affidamento  necessario  per  garantire  la  continuità  dei  servizi  
connessi con le funzioni fondamentali dell’Ente di cui all'art. 19, comma 1, del DL 95/2012 lettera  
a) organizzazione generale dell'amministrazione, ed in particolare sussiste la necessità di continuare  
a usufruire della consultazione della banca dati e dell’estrazione delle visure dal registro delle  
Camere di Commercio; 
3)  di  dare  atto  che  il  pagamento  ad  inizio  dell’anno  2025  in  un'unica  soluzione  anticipata  è  
condizione indispensabile per  l'attivazione dell'abbonamento in oggetto;
4)  di  dare  atto  inoltre  che  il  Responsabile  del  procedimento  è  il  Dott.  Simone  Riccucci,  
Responsabile dell'Ufficio Agenda Digitale, ai sensi dell'art. 31, D.lgs. 50/2016 e smi e dell'atto di  
delega  del  Dirigente  di  Settore  PG  n.  81028  del  01/03/2023,  il  quale  provvederà  anche  a  
sottoscrivere  per accettazione la “Scheda di adesione ai servizi elaborativi di accesso ai dati del  
registro imprese e del registro protesti”;
5) di attestare la regolarità e la correttezza del presente atto ai sensi e per gli effetti di quanto  
dispone l'art. 147 bis, D.Lgs 267/2000.
Modena, lì 18/11/2024
Il Responsabile Ufficio Agenda Digitale
RICCUCCI SIMONE
(Sottoscritto digitalmente ai sensi
dell'art. 21 D.L.gs n 82/2005 e s.m.i.)
copia informatica per consultazione
COMUNE DI MODENA
SETTORE SMART CITY, SERVIZI DEMOGRAFICI E PARTECIPAZIONE
Visto di congruità del Responsabile di Settore
DETERMINAZIONE n° 3077/2024 del 18/11/2024
OGGETTO:  ABBONAMENTO A BANCA DATI TELEMACO DELLA CAMERA DI COMMERCIO PER  
L'ANNO 2025 - AFFIDAMENTO A INFOCAMERE SCPA - IMPEGNO 2025.  
Ai sensi degli articoli 24 e 25 del Regolamento di Organizzazione dell'Ente, si 
appone il visto di congruità del Responsabile di Settore.
Modena li, 18/11/2024 
Sottoscritto dal Responsabile di Settore
(SALVATORE LUCA )
con firma digitale
copia informatica per consultazione
COMUNE DI MODENA
SETTORE RISORSE FINANZIARIE E PATRIMONIALI
DETERMINAZIONE n. 3077/2024 del 18/11/2024
Proposta n° 4379/2024
OGGETTO:  ABBONAMENTO A BANCA DATI TELEMACO DELLA CAMERA DI COMMERCIO PER L'ANNO  
2025 - AFFIDAMENTO A INFOCAMERE SCPA - IMPEGNO 2025.  . 
Visto di Regolarità contabile.  
Vista la delega prot. 411295 del 28/10/2022 che attribuisce l'apposizione del visto di regolarita'  
contabile  attestante  la  copertura  finanziaria  al  Dirigente  del  Servizio  Finanze ,  Economato  e 
Organismi Partecipati , Dr. Davide Manelli.
Visto di regolarita' contabile attestante la copertura finanziaria a norma dell'art. 147 bis, comma 1,  
del T.U. n. 267/2000 ordinamento EE.LL..
Impegno 
Progressivo nr. 1. 
Anno EsercizioE/UCap./Art.Descrizione Capitolo/Articolo Missione/Programma
2024U2390/3ACQUISTO DI SERVIZI PER 
IL SETTORE SISTEMI 
INFORMATIVI (SERVIZIO 
RILEV ANTE AI FINI 
DELL'I.V .A.) UTENZE E 
CANONI1/8
Pren./Imp.Anno CompetenzaNumero/SubImporto PdCCrono
Impegno20252481/0 12.200,001/3/2/5/3
PoliticaProgrammaProgettoDescrizione Politica-Programma-Progetto
Tipo Finanziamento Descrizione Importo
1 MEZZI CORRENTI 12.200,00
Soggetto Descrizione
38793 INFOCAMERE S.C.P.A.
Data di esecutività , 21/11/2024 
Sottoscritto dal Responsabile del Servizio
Finanze, Economato e Organismi Partecipati
f.to MANELLI DA VIDE  
con firma digitale
copia informatica per consultazione
